03_OpenDSS_Circuits/HollySprings_Circuit_Opendss/Swt_Formed_noPH.txt
New Line.105495__103374096 Bus1=103007630 Bus2=103135359 LineCode=NONE Length=0.001 units=m
New Line.13L570__2701321 Bus1=26679485 Bus2=27137075 LineCode=NONE Length=0.001 units=m
New Line.106804__2701104 Bus1=27136858 Bus2=25836854 LineCode=NONE Length=0.001 units=m
New Line.106804__2701105 Bus1=25836854 Bus2=27136859 LineCode=NONE Length=0.001 units=m
New Line.144378__2701336 Bus1=26776430 Bus2=27137090 LineCode=NONE Length=0.001 units=m
New Line.106804__2701106 Bus1=25836854 Bus2=27136860 LineCode=NONE Length=0.001 units=m
New Line.13L570__2701322 Bus1=27137076 Bus2=26679485 LineCode=NONE Length=0.001 units=m
New Line.18GC33__105326050 Bus1=103626605 Bus2=103626606 LineCode=NONE Length=0.001 units=m
New Line.106800__2701100 Bus1=25836861 Bus2=27136854 LineCode=NONE Length=0.001 units=m
New Line.186Q94__104672522 Bus1=103527277 Bus2=103527276 LineCode=NONE Length=0.001 units=m
New Line.186Q94__104672521 Bus1=103527276 Bus2=103527275 LineCode=NONE Length=0.001 units=m
New Line.17MN18__104282587 Bus1=103383300 Bus2=103383301 LineCode=NONE Length=0.001 units=m
New Line.17MN18__104282586 Bus1=103383301 Bus2=103383302 LineCode=NONE Length=0.001 units=m
New Line.CBR27__2700959 Bus1=1105418 Bus2=27136713 LineCode=NONE Length=0.001 units=m
New Line.CBR27__2700958 Bus1=27136712 Bus2=1105418 LineCode=NONE Length=0.001 units=m
New Line.183Y96__104696222 Bus1=103537190 Bus2=103537122 LineCode=NONE Length=0.001 units=m
New Line.14Q055__103041320 Bus1=103016834 Bus2=103016849 LineCode=NONE Length=0.001 units=m
New Line.14Q055__103041321 Bus1=103016839 Bus2=103016834 LineCode=NONE Length=0.001 units=m
New Line.G2403__2693084 Bus1=1140149 Bus2=26999407 LineCode=NONE Length=0.001 units=m
New Line.G2402__2693085 Bus1=25747796 Bus2=26999408 LineCode=NONE Length=0.001 units=m
New Line.8DR30__2693046 Bus1=25426802 Bus2=26999369 LineCode=NONE Length=0.001 units=m
New Line.G2402__2693086 Bus1=26999409 Bus2=25747796 LineCode=NONE Length=0.001 units=m
New Line.G2403__2693083 Bus1=26999406 Bus2=1140149 LineCode=NONE Length=0.001 units=m
New Line.8DR30__2693045 Bus1=26999368 Bus2=25426802 LineCode=NONE Length=0.001 units=m
New Line.8DR36__2693047 Bus1=25497403 Bus2=26999370 LineCode=NONE Length=0.001 units=m
New Line.7NX73__2692946 Bus1=25734565 Bus2=103079718 LineCode=NONE Length=0.001 units=m
New Line.7NX73__2692947 Bus1=26999270 Bus2=25734565 LineCode=NONE Length=0.001 units=m
New Line.9WF49__2701060 Bus1=25876081 Bus2=27136814 LineCode=NONE Length=0.001 units=m
New Line.102L21__2701174 Bus1=26755198 Bus2=27136928 LineCode=NONE Length=0.001 units=m
New Line.102L21__2701175 Bus1=27136929 Bus2=26755198 LineCode=NONE Length=0.001 units=m
New Line.17KH67__104218262 Bus1=103359063 Bus2=103359064 LineCode=NONE Length=0.001 units=m
New Line.17KH67__104218263 Bus1=103359062 Bus2=103359063 LineCode=NONE Length=0.001 units=m
New Line.102L19__2701170 Bus1=27136924 Bus2=26755197 LineCode=NONE Length=0.001 units=m
New Line.8DR36__2693048 Bus1=26999371 Bus2=25497403 LineCode=NONE Length=0.001 units=m
New Line.14G317__2679983 Bus1=27146923 Bus2=103016798 LineCode=NONE Length=0.001 units=m
New Line.14G317__2679982 Bus1=103036415 Bus2=27146922 LineCode=NONE Length=0.001 units=m
New Line.U602BH__2692833 Bus1=26999156 Bus2=1139987 LineCode=NONE Length=0.001 units=m
New Line.U600BH__2692822 Bus1=26999145 Bus2=1140076 LineCode=NONE Length=0.001 units=m
New Line.14L465__2700819 Bus1=103045212 Bus2=26887559 LineCode=NONE Length=0.001 units=m
New Line.U600BH__2692821 Bus1=1140076 Bus2=26999144 LineCode=NONE Length=0.001 units=m
New Line.9AM84__2693537 Bus1=25631609 Bus2=26999860 LineCode=NONE Length=0.001 units=m
New Line.102L18__2701168 Bus1=25750597 Bus2=27136922 LineCode=NONE Length=0.001 units=m
New Line.9AM84__2693536 Bus1=26999859 Bus2=25631609 LineCode=NONE Length=0.001 units=m
New Line.9AM89__2693539 Bus1=25631613 Bus2=26999862 LineCode=NONE Length=0.001 units=m
New Line.102L18__2701169 Bus1=27136923 Bus2=25750597 LineCode=NONE Length=0.001 units=m
New Line.9AM85__2693534 Bus1=26999857 Bus2=25631608 LineCode=NONE Length=0.001 units=m
New Line.9AM89__2693538 Bus1=26999861 Bus2=25631613 LineCode=NONE Length=0.001 units=m
New Line.U602BH__2692835 Bus1=1139987 Bus2=26999158 LineCode=NONE Length=0.001 units=m
New Line.U602BH__2692834 Bus1=1139987 Bus2=26999157 LineCode=NONE Length=0.001 units=m
New Line.9WF47__2700944 Bus1=27136698 Bus2=25876080 LineCode=NONE Length=0.001 units=m
New Line.9WF47__2700946 Bus1=25876080 Bus2=27136700 LineCode=NONE Length=0.001 units=m
New Line.14L810__2700860 Bus1=103048713 Bus2=103048712 LineCode=NONE Length=0.001 units=m
New Line.C1F95__2700899 Bus1=27136653 Bus2=25734580 LineCode=NONE Length=0.001 units=m
New Line.14NJ19__103098846 Bus1=103041526 Bus2=103041531 LineCode=NONE Length=0.001 units=m
New Line.14Q054__103041306 Bus1=103016829 Bus2=103016827 LineCode=NONE Length=0.001 units=m
New Line.14MD35__103098783 Bus1=103048715 Bus2=T4795B23_10000005 LineCode=NONE Length=0.001 units=m
New Line.14Q054__103041305 Bus1=103016827 Bus2=103016838 LineCode=NONE Length=0.001 units=m
New Line.14L466__2700821 Bus1=103125256 Bus2=26887560 LineCode=NONE Length=0.001 units=m
New Line.14L466__2700822 Bus1=26887560 Bus2=27136576 LineCode=NONE Length=0.001 units=m
New Line.186Q95__104672520 Bus1=103527273 Bus2=103527272 LineCode=NONE Length=0.001 units=m
New Line.17MN19__104282580 Bus1=103383279 Bus2=103383280 LineCode=NONE Length=0.001 units=m
New Line.7TX20__2701182 Bus1=27136936 Bus2=25360255 LineCode=NONE Length=0.001 units=m
New Line.11E480__103404104 Bus1=26128170 Bus2=103125594 LineCode=NONE Length=0.001 units=m
New Line.7TX20__2701181 Bus1=25360255 Bus2=27136935 LineCode=NONE Length=0.001 units=m
New Line.9WA88__2700964 Bus1=25873704 Bus2=27136718 LineCode=NONE Length=0.001 units=m
New Line.G250K__2692955 Bus1=26999278 Bus2=25734637 LineCode=NONE Length=0.001 units=m
New Line.G250K__2692956 Bus1=25734637 Bus2=26999279 LineCode=NONE Length=0.001 units=m
New Line.U588BH__2693010 Bus1=1140108 Bus2=26999333 LineCode=NONE Length=0.001 units=m
New Line.9WA88__2700963 Bus1=27136717 Bus2=25873704 LineCode=NONE Length=0.001 units=m
New Line.183Y12__104695296 Bus1=103536834 Bus2=103536786 LineCode=NONE Length=0.001 units=m
New Line.183Y12__104695295 Bus1=103536786 Bus2=103536832 LineCode=NONE Length=0.001 units=m
New Line.PME14__2692868 Bus1=26999191 Bus2=25024992 LineCode=NONE Length=0.001 units=m
New Line.183Y95__104696227 Bus1=103537123 Bus2=103537191 LineCode=NONE Length=0.001 units=m
New Line.PME14__2692869 Bus1=25024992 Bus2=26999192 LineCode=NONE Length=0.001 units=m
New Line.5LT91__2692884 Bus1=26999207 Bus2=25024996 LineCode=NONE Length=0.001 units=m
New Line.5LT91__2692885 Bus1=25024996 Bus2=26999208 LineCode=NONE Length=0.001 units=m
New Line.13F675__2701378 Bus1=103121261 Bus2=103121256 LineCode=NONE Length=0.001 units=m
New Line.15TN74__103913538 Bus1=103265086 Bus2=103265159 LineCode=NONE Length=0.001 units=m
New Line.183Y95__104696228 Bus1=103537194 Bus2=103537123 LineCode=NONE Length=0.001 units=m
New Line.15TN74__103913539 Bus1=103265162 Bus2=103265086 LineCode=NONE Length=0.001 units=m
New Line.A543BH__2692847 Bus1=26999170 Bus2=1139897 LineCode=NONE Length=0.001 units=m
New Line.84Q24__2693040 Bus1=26999363 Bus2=25734529 LineCode=NONE Length=0.001 units=m
New Line.A543BH__2692846 Bus1=1139897 Bus2=26999169 LineCode=NONE Length=0.001 units=m
New Line.D111K__2700919 Bus1=27136673 Bus2=25734605 LineCode=NONE Length=0.001 units=m
New Line.U612BH__2692830 Bus1=26999153 Bus2=1140051 LineCode=NONE Length=0.001 units=m
New Line.13F675__2701377 Bus1=103121242 Bus2=103121228 LineCode=NONE Length=0.001 units=m
New Line.14LH92__2701371 Bus1=27137125 Bus2=26907384 LineCode=NONE Length=0.001 units=m
New Line.17KH66__104218264 Bus1=103359051 Bus2=103359052 LineCode=NONE Length=0.001 units=m
New Line.17KH66__104218265 Bus1=103359052 Bus2=103359053 LineCode=NONE Length=0.001 units=m
New Line.14LH92__2701372 Bus1=26907384 Bus2=27137126 LineCode=NONE Length=0.001 units=m
New Line.14Q053__103041285 Bus1=103025150 Bus2=103016818 LineCode=NONE Length=0.001 units=m
New Line.13PX76__2693873 Bus1=26709810 Bus2=27000196 LineCode=NONE Length=0.001 units=m
New Line.14Q053__103041284 Bus1=103016818 Bus2=103016828 LineCode=NONE Length=0.001 units=m
New Line.17MN22__104282577 Bus1=103383281 Bus2=103383282 LineCode=NONE Length=0.001 units=m
New Line.17MN22__104282578 Bus1=103383282 Bus2=103383283 LineCode=NONE Length=0.001 units=m
New Line.13PX76__2693874 Bus1=27000197 Bus2=26709810 LineCode=NONE Length=0.001 units=m
New Line.18GE31__105436272 Bus1=103631265 Bus2=103631268 LineCode=NONE Length=0.001 units=m
New Line.8EK62__2693050 Bus1=25586104 Bus2=26999373 LineCode=NONE Length=0.001 units=m
New Line.133Y84__2701192 Bus1=27136946 Bus2=26567440 LineCode=NONE Length=0.001 units=m
New Line.18GE31__105436271 Bus1=103631269 Bus2=103631265 LineCode=NONE Length=0.001 units=m
New Line.8EK62__2693051 Bus1=25586104 Bus2=26999374 LineCode=NONE Length=0.001 units=m
New Line.8EK63__2693052 Bus1=25833129 Bus2=26999375 LineCode=NONE Length=0.001 units=m
New Line.8EK63__2693053 Bus1=26999376 Bus2=25833129 LineCode=NONE Length=0.001 units=m
New Line.133Y84__2701191 Bus1=26567440 Bus2=27136945 LineCode=NONE Length=0.001 units=m
New Line.14LJ00__2701349 Bus1=26896049 Bus2=27137103 LineCode=NONE Length=0.001 units=m
New Line.14LJ00__2701348 Bus1=27137102 Bus2=26896049 LineCode=NONE Length=0.001 units=m
New Line.9W757__2701504 Bus1=25858575 Bus2=27137258 LineCode=NONE Length=0.001 units=m
New Line.9W757__2701505 Bus1=27137259 Bus2=25858575 LineCode=NONE Length=0.001 units=m
New Line.14FX05__2700739 Bus1=26859626 Bus2=27136493 LineCode=NONE Length=0.001 units=m
New Line.14LJ03__2701353 Bus1=26896052 Bus2=27137107 LineCode=NONE Length=0.001 units=m
New Line.187W45__104783620 Bus1=103571153 Bus2=103571156 LineCode=NONE Length=0.001 units=m
New Line.14LJ03__2701352 Bus1=27137106 Bus2=26896052 LineCode=NONE Length=0.001 units=m
New Line.8EK65__2693058 Bus1=25586117 Bus2=26999381 LineCode=NONE Length=0.001 units=m
New Line.17MN16__104282583 Bus1=103383285 Bus2=103383286 LineCode=NONE Length=0.001 units=m
New Line.8EK65__2693059 Bus1=26999382 Bus2=25586117 LineCode=NONE Length=0.001 units=m
New Line.17MN16__104282582 Bus1=103383286 Bus2=103383287 LineCode=NONE Length=0.001 units=m
New Line.9W756__2701507 Bus1=27137261 Bus2=25858574 LineCode=NONE Length=0.001 units=m
New Line.8DT83__2693389 Bus1=25734569 Bus2=26999712 LineCode=NONE Length=0.001 units=m
New Line.17BT58__104029639 Bus1=103294957 Bus2=103294837 LineCode=NONE Length=0.001 units=m
New Line.7NX02__2692942 Bus1=25734562 Bus2=26999265 LineCode=NONE Length=0.001 units=m
New Line.8DT83__2693388 Bus1=26999711 Bus2=25734569 LineCode=NONE Length=0.001 units=m
New Line.7NX02__2692943 Bus1=26999266 Bus2=25734562 LineCode=NONE Length=0.001 units=m
New Line.13PX89__2693860 Bus1=27000183 Bus2=26709745 LineCode=NONE Length=0.001 units=m
New Line.13PX88__2693857 Bus1=27000180 Bus2=26709740 LineCode=NONE Length=0.001 units=m
New Line.G261K__2693038 Bus1=26999361 Bus2=1105100 LineCode=NONE Length=0.001 units=m
New Line.13PX94__2693852 Bus1=26709797 Bus2=27000175 LineCode=NONE Length=0.001 units=m
New Line.D102K__2701015 Bus1=25734598 Bus2=27136769 LineCode=NONE Length=0.001 units=m
New Line.13PX94__2693851 Bus1=27000174 Bus2=26709797 LineCode=NONE Length=0.001 units=m
New Line.8R721__2685192 Bus1=26991510 Bus2=25490385 LineCode=NONE Length=0.001 units=m
New Line.D102K__2701014 Bus1=27136768 Bus2=25734598 LineCode=NONE Length=0.001 units=m
New Line.9W754__2701508 Bus1=103014538 Bus2=25858578 LineCode=NONE Length=0.001 units=m
New Line.10EH22__2701092 Bus1=27136846 Bus2=25917435 LineCode=NONE Length=0.001 units=m
New Line.13PX88__2693858 Bus1=26709740 Bus2=27000181 LineCode=NONE Length=0.001 units=m
New Line.11E483__2701113 Bus1=26128186 Bus2=27136867 LineCode=NONE Length=0.001 units=m
New Line.8DT86__2692948 Bus1=25734566 Bus2=26999271 LineCode=NONE Length=0.001 units=m
New Line.8DT86__2692949 Bus1=25734566 Bus2=26999272 LineCode=NONE Length=0.001 units=m
New Line.12129__2693815 Bus1=27000138 Bus2=1105038 LineCode=NONE Length=0.001 units=m
New Line.126697__2693607 Bus1=26356916 Bus2=26999930 LineCode=NONE Length=0.001 units=m
New Line.18FA93__105436421 Bus1=103631345 Bus2=103631336 LineCode=NONE Length=0.001 units=m
New Line.D106K__2700910 Bus1=25734600 Bus2=27136664 LineCode=NONE Length=0.001 units=m
New Line.11E483__2701114 Bus1=27136868 Bus2=26128186 LineCode=NONE Length=0.001 units=m
New Line.126697__2693608 Bus1=26999931 Bus2=26356916 LineCode=NONE Length=0.001 units=m
New Line.8DT84__2693063 Bus1=26999386 Bus2=25734568 LineCode=NONE Length=0.001 units=m
New Line.8DT84__2693062 Bus1=25734568 Bus2=26999385 LineCode=NONE Length=0.001 units=m
New Line.11E480__2701123 Bus1=27136877 Bus2=26128170 LineCode=NONE Length=0.001 units=m
New Line.U609BH__2692827 Bus1=26999150 Bus2=1139872 LineCode=NONE Length=0.001 units=m
New Line.18NP34__106231437 Bus1=103666861 Bus2=103666848 LineCode=NONE Length=0.001 units=m
New Line.G253K__2700930 Bus1=27136684 Bus2=25734640 LineCode=NONE Length=0.001 units=m
New Line.G253K__2700931 Bus1=25734640 Bus2=27136685 LineCode=NONE Length=0.001 units=m
New Line.13PX93__2693849 Bus1=27000172 Bus2=26709791 LineCode=NONE Length=0.001 units=m
New Line.17KH65__104218260 Bus1=103359056 Bus2=103359057 LineCode=NONE Length=0.001 units=m
New Line.U609BH__2692828 Bus1=1139872 Bus2=26999151 LineCode=NONE Length=0.001 units=m
New Line.17KH65__104218261 Bus1=103359055 Bus2=103359056 LineCode=NONE Length=0.001 units=m
New Line.12AK60__2701055 Bus1=27136809 Bus2=26387839 LineCode=NONE Length=0.001 units=m
New Line.12AK60__2701054 Bus1=26387839 Bus2=27136808 LineCode=NONE Length=0.001 units=m
New Line.14FX08__2700746 Bus1=103322576 Bus2=26859622 LineCode=NONE Length=0.001 units=m
New Line.9WA93__2701524 Bus1=27137278 Bus2=25873713 LineCode=NONE Length=0.001 units=m
New Line.9WA93__2701523 Bus1=25873713 Bus2=27137277 LineCode=NONE Length=0.001 units=m
New Line.D860K__2693066 Bus1=1105214 Bus2=26999389 LineCode=NONE Length=0.001 units=m
New Line.14L346__2700816 Bus1=27136570 Bus2=26887528 LineCode=NONE Length=0.001 units=m
New Line.D860K__2693067 Bus1=26999390 Bus2=1105214 LineCode=NONE Length=0.001 units=m
New Line.14L342__2700818 Bus1=26887523 Bus2=27136572 LineCode=NONE Length=0.001 units=m
New Line.D862K__2692910 Bus1=1105379 Bus2=26999233 LineCode=NONE Length=0.001 units=m
New Line.17DH83__104079498 Bus1=103307204 Bus2=103307205 LineCode=NONE Length=0.001 units=m
New Line.183Y93__104696246 Bus1=103537127 Bus2=103537208 LineCode=NONE Length=0.001 units=m
New Line.14L342__2700817 Bus1=27136571 Bus2=26887523 LineCode=NONE Length=0.001 units=m
New Line.183Y93__104696245 Bus1=103543459 Bus2=103537127 LineCode=NONE Length=0.001 units=m
New Line.105P72__2680188 Bus1=26835313 Bus2=25856674 LineCode=NONE Length=0.001 units=m
New Line.G251K__2692957 Bus1=25734638 Bus2=26999280 LineCode=NONE Length=0.001 units=m
New Line.8DW53__103222931 Bus1=103079711 Bus2=103079706 LineCode=NONE Length=0.001 units=m
New Line.G251K__2692958 Bus1=26999281 Bus2=25734638 LineCode=NONE Length=0.001 units=m
New Line.132351__2693142 Bus1=26555727 Bus2=26999465 LineCode=NONE Length=0.001 units=m
New Line.7NW66__2692937 Bus1=26999260 Bus2=25734559 LineCode=NONE Length=0.001 units=m
New Line.7NW66__2692936 Bus1=25734559 Bus2=26999259 LineCode=NONE Length=0.001 units=m
New Line.132351__2693141 Bus1=26999464 Bus2=26555727 LineCode=NONE Length=0.001 units=m
New Line.13PX82__2693791 Bus1=26709841 Bus2=27000114 LineCode=NONE Length=0.001 units=m
New Line.132360__2693158 Bus1=26999481 Bus2=26555789 LineCode=NONE Length=0.001 units=m
New Line.13PX82__2693790 Bus1=27000113 Bus2=26709841 LineCode=NONE Length=0.001 units=m
New Line.D114K__2701029 Bus1=25734586 Bus2=27136783 LineCode=NONE Length=0.001 units=m
New Line.132360__2693159 Bus1=26555789 Bus2=26999482 LineCode=NONE Length=0.001 units=m
New Line.D114K__2701028 Bus1=27136782 Bus2=25734586 LineCode=NONE Length=0.001 units=m
New Line.14L472__103913766 Bus1=103282197 Bus2=26887569 LineCode=NONE Length=0.001 units=m
New Line.107H65__2693080 Bus1=25894028 Bus2=26999403 LineCode=NONE Length=0.001 units=m
New Line.13L576__2701331 Bus1=27137085 Bus2=26679492 LineCode=NONE Length=0.001 units=m
New Line.13L576__2701332 Bus1=26679492 Bus2=27137086 LineCode=NONE Length=0.001 units=m
New Line.7X078__2701190 Bus1=25360254 Bus2=27136944 LineCode=NONE Length=0.001 units=m
New Line.G9Z21__103450799 Bus1=25859631 Bus2=103136725 LineCode=NONE Length=0.001 units=m
New Line.13L571__2701324 Bus1=27137078 Bus2=26679486 LineCode=NONE Length=0.001 units=m
New Line.106805__2701101 Bus1=27136855 Bus2=25836859 LineCode=NONE Length=0.001 units=m
New Line.106805__2701102 Bus1=25836859 Bus2=27136856 LineCode=NONE Length=0.001 units=m
New Line.144380__2701343 Bus1=27137097 Bus2=26776418 LineCode=NONE Length=0.001 units=m
New Line.13L571__2701323 Bus1=26679486 Bus2=27137077 LineCode=NONE Length=0.001 units=m
New Line.144380__2701344 Bus1=26776418 Bus2=27137098 LineCode=NONE Length=0.001 units=m
New Line.144381__2701339 Bus1=27137093 Bus2=26776411 LineCode=NONE Length=0.001 units=m
New Line.116C33__2700966 Bus1=27136720 Bus2=25873717 LineCode=NONE Length=0.001 units=m
New Line.116C33__2700967 Bus1=25873717 Bus2=27136721 LineCode=NONE Length=0.001 units=m
New Line.5R684__2701009 Bus1=27136763 Bus2=26281698 LineCode=NONE Length=0.001 units=m
New Line.106801__2701103 Bus1=27136857 Bus2=25836871 LineCode=NONE Length=0.001 units=m
New Line.12133__2700960 Bus1=27136714 Bus2=1105420 LineCode=NONE Length=0.001 units=m
New Line.17MN20__104282573 Bus1=103383290 Bus2=103383291 LineCode=NONE Length=0.001 units=m
...
!New Line.18LL87__105931319 Bus1=103649895 Bus2=103649896 LineCode=NONE Length=0.001 units=m
New Line.14L467__2700823 Bus1=27136577 Bus2=26887562 LineCode=NONE Length=0.001 units=m
New Line.D864K__2700881 Bus1=27136635 Bus2=1105452 LineCode=NONE Length=0.001 units=m
New Line.14L470__2700830 Bus1=26887565 Bus2=27136584 LineCode=NONE Length=0.001 units=m
New Line.D864K__2700882 Bus1=1105452 Bus2=27136636 LineCode=NONE Length=0.001 units=m
New Line.14L463__2700861 Bus1=103400446 Bus2=103400443 LineCode=NONE Length=0.001 units=m
New Line.132414__2693116 Bus1=26999439 Bus2=26555830 LineCode=NONE Length=0.001 units=m
New Line.132414__2693117 Bus1=26555830 Bus2=26999440 LineCode=NONE Length=0.001 units=m
New Line.132416__2693138 Bus1=26999461 Bus2=26555820 LineCode=NONE Length=0.001 units=m
New Line.7NW93__2692941 Bus1=26999264 Bus2=25734561 LineCode=NONE Length=0.001 units=m
New Line.7NW93__2692940 Bus1=25734561 Bus2=26999263 LineCode=NONE Length=0.001 units=m
New Line.7TX21__2701177 Bus1=25360251 Bus2=27136931 LineCode=NONE Length=0.001 units=m
New Line.D115K__2701027 Bus1=25734587 Bus2=27136781 LineCode=NONE Length=0.001 units=m
New Line.D115K__2701026 Bus1=27136780 Bus2=25734587 LineCode=NONE Length=0.001 units=m
New Line.7TX21__2701179 Bus1=27136933 Bus2=25360251 LineCode=NONE Length=0.001 units=m
New Line.U588BH__2693009 Bus1=26999332 Bus2=1140108 LineCode=NONE Length=0.001 units=m
New Line.84Q25__2693034 Bus1=25734525 Bus2=26999357 LineCode=NONE Length=0.001 units=m
New Line.84Q26__2693031 Bus1=25734528 Bus2=26999354 LineCode=NONE Length=0.001 units=m
New Line.84Q25__2693033 Bus1=25734525 Bus2=26999356 LineCode=NONE Length=0.001 units=m
New Line.84Q26__2693030 Bus1=25734528 Bus2=26999353 LineCode=NONE Length=0.001 units=m
New Line.84Q25__2693032 Bus1=26999355 Bus2=25734525 LineCode=NONE Length=0.001 units=m
New Line.D111K__2700920 Bus1=25734605 Bus2=27136674 LineCode=NONE Length=0.001 units=m
New Line.A549BH__2692841 Bus1=1140071 Bus2=26999164 LineCode=NONE Length=0.001 units=m
New Line.A541BH__2692845 Bus1=26999168 Bus2=1139951 LineCode=NONE Length=0.001 units=m
New Line.A549BH__2692840 Bus1=26999163 Bus2=1140071 LineCode=NONE Length=0.001 units=m
New Line.A541BH__2692844 Bus1=1139951 Bus2=26999167 LineCode=NONE Length=0.001 units=m
New Line.184Q58__104712820 Bus1=103543473 Bus2=103543472 LineCode=NONE Length=0.001 units=m
New Line.84Q24__2693039 Bus1=25734529 Bus2=26999362 LineCode=NONE Length=0.001 units=m
New Line.8DW53__103222932 Bus1=103079707 Bus2=103079713 LineCode=NONE Length=0.001 units=m
New Line.14LH95__2701357 Bus1=27137111 Bus2=26896054 LineCode=NONE Length=0.001 units=m
New Line.12128__2700912 Bus1=25734601 Bus2=27136666 LineCode=NONE Length=0.001 units=m
New Line.2YC86__2700879 Bus1=27136633 Bus2=1105450 LineCode=NONE Length=0.001 units=m
New Line.12128__2700911 Bus1=27136665 Bus2=25734601 LineCode=NONE Length=0.001 units=m
New Line.14LH93__2701370 Bus1=26907383 Bus2=27137124 LineCode=NONE Length=0.001 units=m
New Line.18GC35__105326043 Bus1=103626609 Bus2=103626610 LineCode=NONE Length=0.001 units=m
New Line.13PX78__2693880 Bus1=27000203 Bus2=26709824 LineCode=NONE Length=0.001 units=m
New Line.15QR59__103849343 Bus1=103249223 Bus2=103249189 LineCode=NONE Length=0.001 units=m
New Line.13PX77__2693876 Bus1=27000199 Bus2=26709815 LineCode=NONE Length=0.001 units=m
New Line.13PX77__2693875 Bus1=26709815 Bus2=27000198 LineCode=NONE Length=0.001 units=m
New Line.6TE37__2701140 Bus1=27136894 Bus2=25359988 LineCode=NONE Length=0.001 units=m
New Line.CBN13__2700957 Bus1=1105733 Bus2=27136711 LineCode=NONE Length=0.001 units=m
New Line.14L810__103098773 Bus1=103048711 Bus2=T4795B23_10000004 LineCode=NONE Length=0.001 units=m
New Line.8EK62__2693049 Bus1=26999372 Bus2=25586104 LineCode=NONE Length=0.001 units=m
New Line.CBN13__2700956 Bus1=27136710 Bus2=1105733 LineCode=NONE Length=0.001 units=m
New Line.15QR59__103849345 Bus1=103249189 Bus2=103249218 LineCode=NONE Length=0.001 units=m
New Line.6TE35__2701141 Bus1=27136895 Bus2=25359972 LineCode=NONE Length=0.001 units=m
New Line.CBN16__2700952 Bus1=27136706 Bus2=1105719 LineCode=NONE Length=0.001 units=m
New Line.6TE35__2701142 Bus1=25359972 Bus2=27136896 LineCode=NONE Length=0.001 units=m
New Line.8DR38__104508465 Bus1=103462488 Bus2=103462493 LineCode=NONE Length=0.001 units=m
New Line.12127__2700914 Bus1=25734602 Bus2=27136668 LineCode=NONE Length=0.001 units=m
New Line.12126__2700916 Bus1=25734603 Bus2=27136670 LineCode=NONE Length=0.001 units=m
New Line.106797__2701119 Bus1=27136873 Bus2=25836866 LineCode=NONE Length=0.001 units=m
New Line.12127__2700913 Bus1=27136667 Bus2=25734602 LineCode=NONE Length=0.001 units=m
New Line.158E26__103192138 Bus1=103072060 Bus2=103072055 LineCode=NONE Length=0.001 units=m
New Line.CBN14__2700955 Bus1=1105735 Bus2=27136709 LineCode=NONE Length=0.001 units=m
New Line.12126__2700915 Bus1=27136669 Bus2=25734603 LineCode=NONE Length=0.001 units=m
New Line.8DT82__2693391 Bus1=26999714 Bus2=25734570 LineCode=NONE Length=0.001 units=m
New Line.CBN14__2700954 Bus1=27136708 Bus2=1105735 LineCode=NONE Length=0.001 units=m
New Line.12125__2700917 Bus1=27136671 Bus2=25734604 LineCode=NONE Length=0.001 units=m
New Line.8DT82__2693390 Bus1=25734570 Bus2=26999713 LineCode=NONE Length=0.001 units=m
New Line.132356__2701086 Bus1=27136840 Bus2=26555762 LineCode=NONE Length=0.001 units=m
!New Line.18LL90__105931322 Bus1=103649889 Bus2=103649888 LineCode=NONE Length=0.001 units=m
!New Line.18LL90__105931321 Bus1=103649888 Bus2=103649887 LineCode=NONE Length=0.001 units=m
New Line.8DR41__2693056 Bus1=26999379 Bus2=25426804 LineCode=NONE Length=0.001 units=m
New Line.14FX04__2700770 Bus1=26859628 Bus2=27136524 LineCode=NONE Length=0.001 units=m
New Line.8DR41__2693057 Bus1=25426804 Bus2=26999380 LineCode=NONE Length=0.001 units=m
New Line.15QR56__103849303 Bus1=103249181 Bus2=103249208 LineCode=NONE Length=0.001 units=m
New Line.12125__2700918 Bus1=25734604 Bus2=27136672 LineCode=NONE Length=0.001 units=m
New Line.14L809__103098742 Bus1=103041486 Bus2=103041479 LineCode=NONE Length=0.001 units=m
New Line.14FX07__2700743 Bus1=26859623 Bus2=27136497 LineCode=NONE Length=0.001 units=m
New Line.14FX07__2700744 Bus1=27136498 Bus2=26859623 LineCode=NONE Length=0.001 units=m
New Line.13PX95__2693853 Bus1=27000176 Bus2=26709803 LineCode=NONE Length=0.001 units=m
New Line.15QR56__103849304 Bus1=103249210 Bus2=103249181 LineCode=NONE Length=0.001 units=m
New Line.8DT86__2692950 Bus1=103079727 Bus2=25734566 LineCode=NONE Length=0.001 units=m
New Line.11E484__2701111 Bus1=26128192 Bus2=27136865 LineCode=NONE Length=0.001 units=m
New Line.13PX89__2693859 Bus1=26709745 Bus2=27000182 LineCode=NONE Length=0.001 units=m
New Line.15QR58__103849329 Bus1=103249217 Bus2=103249185 LineCode=NONE Length=0.001 units=m
New Line.18KP64__105820258 Bus1=103645578 Bus2=103645577 LineCode=NONE Length=0.001 units=m
New Line.8DT85__2692951 Bus1=25734567 Bus2=26999274 LineCode=NONE Length=0.001 units=m
New Line.126696__2693605 Bus1=26356911 Bus2=26999928 LineCode=NONE Length=0.001 units=m
New Line.18KP64__105820259 Bus1=103645579 Bus2=103645578 LineCode=NONE Length=0.001 units=m
New Line.8DT85__2692952 Bus1=26999275 Bus2=25734567 LineCode=NONE Length=0.001 units=m
New Line.11E484__2701112 Bus1=27136866 Bus2=26128192 LineCode=NONE Length=0.001 units=m
New Line.126696__2693606 Bus1=26999929 Bus2=26356911 LineCode=NONE Length=0.001 units=m
New Line.13PX80__2693882 Bus1=27000205 Bus2=26709829 LineCode=NONE Length=0.001 units=m
New Line.13PX95__2693854 Bus1=26709803 Bus2=27000177 LineCode=NONE Length=0.001 units=m
New Line.13PX96__2693862 Bus1=27000185 Bus2=26709751 LineCode=NONE Length=0.001 units=m
New Line.13PX85__2693856 Bus1=26709857 Bus2=27000179 LineCode=NONE Length=0.001 units=m
New Line.13PX96__2693861 Bus1=26709751 Bus2=27000184 LineCode=NONE Length=0.001 units=m
New Line.13PX85__2693855 Bus1=27000178 Bus2=26709857 LineCode=NONE Length=0.001 units=m
New Line.9AM90__2693541 Bus1=25631614 Bus2=26999864 LineCode=NONE Length=0.001 units=m
New Line.9AM90__2693540 Bus1=26999863 Bus2=25631614 LineCode=NONE Length=0.001 units=m
New Line.12AK62__2701081 Bus1=27136835 Bus2=26387826 LineCode=NONE Length=0.001 units=m
New Line.12AK62__2701080 Bus1=26387826 Bus2=27136834 LineCode=NONE Length=0.001 units=m
New Line.12AK65__2701053 Bus1=27136807 Bus2=26387805 LineCode=NONE Length=0.001 units=m
New Line.12AK65__2701052 Bus1=26387805 Bus2=27136806 LineCode=NONE Length=0.001 units=m
New Line.14Q050__103267066 Bus1=103091336 Bus2=103091333 LineCode=NONE Length=0.001 units=m
New Line.11E481__2701122 Bus1=27136876 Bus2=26128176 LineCode=NONE Length=0.001 units=m
New Line.D100K__2701019 Bus1=25734594 Bus2=27136773 LineCode=NONE Length=0.001 units=m
New Line.15TN71__103913518 Bus1=103265149 Bus2=103265082 LineCode=NONE Length=0.001 units=m
New Line.D100K__2701018 Bus1=27136772 Bus2=25734594 LineCode=NONE Length=0.001 units=m
New Line.PBB35__2693006 Bus1=1140265 Bus2=26999329 LineCode=NONE Length=0.001 units=m
New Line.15TN71__103913517 Bus1=103265082 Bus2=103265146 LineCode=NONE Length=0.001 units=m
New Line.D106K__2700909 Bus1=27136663 Bus2=25734600 LineCode=NONE Length=0.001 units=m
New Line.PBB35__2693004 Bus1=26999327 Bus2=1140265 LineCode=NONE Length=0.001 units=m
New Line.PBB36__2693001 Bus1=26999324 Bus2=25234913 LineCode=NONE Length=0.001 units=m
New Line.7TX18__2701163 Bus1=25360256 Bus2=27136917 LineCode=NONE Length=0.001 units=m
New Line.G2636__2692881 Bus1=25025000 Bus2=26999204 LineCode=NONE Length=0.001 units=m
New Line.7TX18__2701162 Bus1=103125604 Bus2=25360256 LineCode=NONE Length=0.001 units=m
New Line.G2636__2692880 Bus1=26999203 Bus2=25025000 LineCode=NONE Length=0.001 units=m
New Line.10D187__2679679 Bus1=25905475 Bus2=26835312 LineCode=NONE Length=0.001 units=m
New Line.9AM79__2693531 Bus1=25631618 Bus2=26999854 LineCode=NONE Length=0.001 units=m
New Line.9AM79__2693530 Bus1=26999853 Bus2=25631618 LineCode=NONE Length=0.001 units=m
New Line.7NX29__2693026 Bus1=26999349 Bus2=25734532 LineCode=NONE Length=0.001 units=m
New Line.7NX29__2693025 Bus1=25734532 Bus2=26999348 LineCode=NONE Length=0.001 units=m
New Line.9AM78__2693533 Bus1=25631617 Bus2=26999856 LineCode=NONE Length=0.001 units=m
New Line.9AM78__2693532 Bus1=26999855 Bus2=25631617 LineCode=NONE Length=0.001 units=m
New Line.PBB38__2692849 Bus1=1139895 Bus2=26999172 LineCode=NONE Length=0.001 units=m
New Line.7MX02__2701145 Bus1=27136899 Bus2=25356096 LineCode=NONE Length=0.001 units=m
New Line.PBB38__2692848 Bus1=26999171 Bus2=1139895 LineCode=NONE Length=0.001 units=m
New Line.7MX03__2701147 Bus1=27136901 Bus2=25356093 LineCode=NONE Length=0.001 units=m
New Line.U589BH__2693007 Bus1=26999330 Bus2=1140263 LineCode=NONE Length=0.001 units=m
New Line.7MX03__2701146 Bus1=25356093 Bus2=27136900 LineCode=NONE Length=0.001 units=m
New Line.132357__2693136 Bus1=26555768 Bus2=26999459 LineCode=NONE Length=0.001 units=m
New Line.132357__2693137 Bus1=26999460 Bus2=26555768 LineCode=NONE Length=0.001 units=m
New Line.14L343__2700813 Bus1=26887524 Bus2=27136567 LineCode=NONE Length=0.001 units=m
New Line.NV02BH__2692879 Bus1=25024999 Bus2=26999202 LineCode=NONE Length=0.001 units=m
New Line.132354__2693122 Bus1=26999445 Bus2=26555750 LineCode=NONE Length=0.001 units=m
New Line.14L343__2700812 Bus1=27136566 Bus2=26887524 LineCode=NONE Length=0.001 units=m
New Line.NV02BH__2692878 Bus1=26999201 Bus2=25024999 LineCode=NONE Length=0.001 units=m
New Line.132354__2693123 Bus1=26555750 Bus2=26999446 LineCode=NONE Length=0.001 units=m
New Line.14Q056__103041353 Bus1=103016847 Bus2=103016861 LineCode=NONE Length=0.001 units=m
New Line.17BR88__104028972 Bus1=103294680 Bus2=103294681 LineCode=NONE Length=0.001 units=m
New Line.7MX03__2701148 Bus1=25356093 Bus2=27136902 LineCode=NONE Length=0.001 units=m
New Line.17BR88__104028973 Bus1=103294679 Bus2=103294680 LineCode=NONE Length=0.001 units=m
New Line.D862K__2692909 Bus1=26999232 Bus2=1105379 LineCode=NONE Length=0.001 units=m
New Line.D116K__2701025 Bus1=25734588 Bus2=27136779 LineCode=NONE Length=0.001 units=m
New Line.D116K__2701024 Bus1=27136778 Bus2=25734588 LineCode=NONE Length=0.001 units=m
New Line.11E481__103404133 Bus1=26128176 Bus2=103125599 LineCode=NONE Length=0.001 units=m
New Line.14Q056__103041354 Bus1=103016850 Bus2=103016847 LineCode=NONE Length=0.001 units=m
New Line.7TX17__2701161 Bus1=25360267 Bus2=27136915 LineCode=NONE Length=0.001 units=m
New Line.7TX17__2701160 Bus1=103125605 Bus2=25360267 LineCode=NONE Length=0.001 units=m
New Line.D112K__2700922 Bus1=25734606 Bus2=27136676 LineCode=NONE Length=0.001 units=m
New Line.U589BH__2693008 Bus1=1140263 Bus2=26999331 LineCode=NONE Length=0.001 units=m
New Line.18FA94__105436416 Bus1=103631344 Bus2=103631333 LineCode=NONE Length=0.001 units=m
New Line.7WL58__2701159 Bus1=27136913 Bus2=25360263 LineCode=NONE Length=0.001 units=m
New Line.7WL58__2701158 Bus1=25360263 Bus2=27136912 LineCode=NONE Length=0.001 units=m
New Line.D112K__2700921 Bus1=27136675 Bus2=25734606 LineCode=NONE Length=0.001 units=m
New Line.D118K__2701010 Bus1=27136764 Bus2=25734590 LineCode=NONE Length=0.001 units=m
New Line.13L575__2701318 Bus1=26679490 Bus2=27137072 LineCode=NONE Length=0.001 units=m
New Line.18FA94__105436415 Bus1=103631332 Bus2=103631339 LineCode=NONE Length=0.001 units=m
New Line.7X079__2701187 Bus1=27136941 Bus2=25360352 LineCode=NONE Length=0.001 units=m
New Line.106798__2701097 Bus1=25836864 Bus2=27136851 LineCode=NONE Length=0.001 units=m
New Line.106798__2701098 Bus1=27136852 Bus2=25836864 LineCode=NONE Length=0.001 units=m
New Line.13L575__2701317 Bus1=27137071 Bus2=26679490 LineCode=NONE Length=0.001 units=m
New Line.132350__2693128 Bus1=26999451 Bus2=26555726 LineCode=NONE Length=0.001 units=m
New Line.134088__103388666 Bus1=103121479 Bus2=103121474 LineCode=NONE Length=0.001 units=m
New Line.132350__2693129 Bus1=26555726 Bus2=26999452 LineCode=NONE Length=0.001 units=m
New Line.134088__103388667 Bus1=103121475 Bus2=103121503 LineCode=NONE Length=0.001 units=m
New Line.134088__103388665 Bus1=103121475 Bus2=103121504 LineCode=NONE Length=0.001 units=m
New Line.106807__2701110 Bus1=27136864 Bus2=25836870 LineCode=NONE Length=0.001 units=m
New Line.13L572__2701325 Bus1=26679487 Bus2=27137079 LineCode=NONE Length=0.001 units=m
New Line.6TE40__2701144 Bus1=27136898 Bus2=25359989 LineCode=NONE Length=0.001 units=m
New Line.13L572__2701326 Bus1=27137080 Bus2=26679487 LineCode=NONE Length=0.001 units=m
New Line.144381__2701340 Bus1=26776411 Bus2=27137094 LineCode=NONE Length=0.001 units=m
New Line.144379__2701341 Bus1=27137095 Bus2=26776425 LineCode=NONE Length=0.001 units=m
New Line.6TE40__2701143 Bus1=25359989 Bus2=27136897 LineCode=NONE Length=0.001 units=m
New Line.106806__2701107 Bus1=27136861 Bus2=25836853 LineCode=NONE Length=0.001 units=m
New Line.7X078__2701189 Bus1=25360254 Bus2=27136943 LineCode=NONE Length=0.001 units=m
New Line.106806__2701108 Bus1=25836853 Bus2=27136862 LineCode=NONE Length=0.001 units=m
New Line.7X078__2701188 Bus1=27136942 Bus2=25360254 LineCode=NONE Length=0.001 units=m
New Line.107H65__2693079 Bus1=26999402 Bus2=25894028 LineCode=NONE Length=0.001 units=m
New Line.18KP63__105820254 Bus1=103645566 Bus2=103645565 LineCode=NONE Length=0.001 units=m
New Line.18KP63__105820255 Bus1=103645567 Bus2=103645566 LineCode=NONE Length=0.001 units=m
New Line.17KH64__104679532 Bus1=103529680 Bus2=103359454 LineCode=NONE Length=0.001 units=m
New Line.13L569__2701319 Bus1=26679484 Bus2=27137073 LineCode=NONE Length=0.001 units=m
New Line.17DH84__104079500 Bus1=103307201 Bus2=103307200 LineCode=NONE Length=0.001 units=m
New Line.17DH84__104079501 Bus1=103307202 Bus2=103307201 LineCode=NONE Length=0.001 units=m
New Line.G260K__2700943 Bus1=27136697 Bus2=1105149 LineCode=NONE Length=0.001 units=m
New Line.8R719__2685194 Bus1=26991512 Bus2=25490382 LineCode=NONE Length=0.001 units=m
New Line.G260K__2700942 Bus1=1105149 Bus2=27136696 LineCode=NONE Length=0.001 units=m
New Line.8R719__2685195 Bus1=25490382 Bus2=26991513 LineCode=NONE Length=0.001 units=m
New Line.10CY29__2680786 Bus1=26803448 Bus2=103041862 LineCode=NONE Length=0.001 units=m
New Line.7WL56__2701155 Bus1=27136909 Bus2=25360258 LineCode=NONE Length=0.001 units=m
New Line.5ZV69__2692857 Bus1=1139802 Bus2=26999180 LineCode=NONE Length=0.001 units=m
New Line.7WL56__2701154 Bus1=25360258 Bus2=27136908 LineCode=NONE Length=0.001 units=m
New Line.7WL57__2701153 Bus1=25360259 Bus2=27136907 LineCode=NONE Length=0.001 units=m
New Line.5ZV69__2692856 Bus1=26999179 Bus2=1139802 LineCode=NONE Length=0.001 units=m
New Line.7WL57__2701152 Bus1=27136906 Bus2=25360259 LineCode=NONE Length=0.001 units=m
New Line.86093__2700208 Bus1=27135962 Bus2=25429364 LineCode=NONE Length=0.001 units=m
New Line.8R719__2685193 Bus1=25490382 Bus2=103125609 LineCode=NONE Length=0.001 units=m
New Line.18GC33__105326049 Bus1=103626606 Bus2=103626607 LineCode=NONE Length=0.001 units=m
New Line.102L16__2701166 Bus1=25750595 Bus2=27136920 LineCode=NONE Length=0.001 units=m
New Line.102L16__2701167 Bus1=27136921 Bus2=25750595 LineCode=NONE Length=0.001 units=m
New Line.7WL54__2701157 Bus1=25360261 Bus2=27136911 LineCode=NONE Length=0.001 units=m
New Line.7WL54__2701156 Bus1=27136910 Bus2=25360261 LineCode=NONE Length=0.001 units=m
New Line.8DR38__104508466 Bus1=103462489 Bus2=103462494 LineCode=NONE Length=0.001 units=m
New Line.9WF48__2701008 Bus1=27136762 Bus2=25876078 LineCode=NONE Length=0.001 units=m
New Line.119P96__2693154 Bus1=26139234 Bus2=26999477 LineCode=NONE Length=0.001 units=m
New Line.119P96__2693153 Bus1=26999476 Bus2=26139234 LineCode=NONE Length=0.001 units=m
New Line.119M15__2701128 Bus1=27136882 Bus2=26331052 LineCode=NONE Length=0.001 units=m
New Line.D101K__2701017 Bus1=25734593 Bus2=27136771 LineCode=NONE Length=0.001 units=m
New Line.D101K__2701016 Bus1=27136770 Bus2=25734593 LineCode=NONE Length=0.001 units=m
New Line.7NX10__2693077 Bus1=25734533 Bus2=26999400 LineCode=NONE Length=0.001 units=m
New Line.7NX11__2693072 Bus1=26999395 Bus2=25734563 LineCode=NONE Length=0.001 units=m
New Line.8DR55__2693054 Bus1=25426806 Bus2=26999377 LineCode=NONE Length=0.001 units=m
New Line.8DT91__2693190 Bus1=26999513 Bus2=25734540 LineCode=NONE Length=0.001 units=m
New Line.7NX10__2693076 Bus1=25734533 Bus2=103079726 LineCode=NONE Length=0.001 units=m
New Line.8DR55__2693055 Bus1=26999378 Bus2=25426806 LineCode=NONE Length=0.001 units=m
New Line.14FX08__104079443 Bus1=26859622 Bus2=103321729 LineCode=NONE Length=0.001 units=m
New Line.8DT92__2693191 Bus1=25734539 Bus2=26999514 LineCode=NONE Length=0.001 units=m
New Line.A488BH__2692831 Bus1=26999154 Bus2=1140293 LineCode=NONE Length=0.001 units=m
New Line.18GC40__105326057 Bus1=103626619 Bus2=103626618 LineCode=NONE Length=0.001 units=m
New Line.8DT92__2693193 Bus1=25734539 Bus2=26999516 LineCode=NONE Length=0.001 units=m
New Line.7NX11__2693075 Bus1=25734563 Bus2=26999398 LineCode=NONE Length=0.001 units=m
New Line.8DT92__2693192 Bus1=26999515 Bus2=25734539 LineCode=NONE Length=0.001 units=m
New Line.183Y13__104695300 Bus1=103536788 Bus2=103536835 LineCode=NONE Length=0.001 units=m
New Line.7NX11__2693074 Bus1=26999397 Bus2=25734563 LineCode=NONE Length=0.001 units=m
New Line.183Y13__104695301 Bus1=103536836 Bus2=103536788 LineCode=NONE Length=0.001 units=m
New Line.14NJ19__103098852 Bus1=103041529 Bus2=103041526 LineCode=NONE Length=0.001 units=m
New Line.8DR38__104508468 Bus1=103462496 Bus2=103462491 LineCode=NONE Length=0.001 units=m
New Line.8R717__2685196 Bus1=26991514 Bus2=25490381 LineCode=NONE Length=0.001 units=m
New Line.G256K__2700934 Bus1=1105313 Bus2=27136688 LineCode=NONE Length=0.001 units=m
New Line.8R717__2685197 Bus1=25490381 Bus2=26991515 LineCode=NONE Length=0.001 units=m
New Line.G256K__2700935 Bus1=27136689 Bus2=1105313 LineCode=NONE Length=0.001 units=m
New Line.G254K__2700927 Bus1=25734641 Bus2=27136681 LineCode=NONE Length=0.001 units=m
New Line.18GC40__105326058 Bus1=103626618 Bus2=103626617 LineCode=NONE Length=0.001 units=m
New Line.8R714__2685198 Bus1=26991516 Bus2=25490379 LineCode=NONE Length=0.001 units=m
New Line.18KP62__105820252 Bus1=103645574 Bus2=103645575 LineCode=NONE Length=0.001 units=m
New Line.8R714__2685199 Bus1=25490379 Bus2=26991517 LineCode=NONE Length=0.001 units=m
New Line.18KP62__105820253 Bus1=103645573 Bus2=103645574 LineCode=NONE Length=0.001 units=m
New Line.106800__2701099 Bus1=27136853 Bus2=25836861 LineCode=NONE Length=0.001 units=m
New Line.14L470__2700829 Bus1=27136583 Bus2=26887565 LineCode=NONE Length=0.001 units=m
New Line.G254K__2700928 Bus1=27136682 Bus2=25734641 LineCode=NONE Length=0.001 units=m
New Line.14G318__2700768 Bus1=27136522 Bus2=26859780 LineCode=NONE Length=0.001 units=m
New Line.B122K__2701360 Bus1=27137114 Bus2=1106342 LineCode=NONE Length=0.001 units=m
New Line.5DP92__2693161 Bus1=25734544 Bus2=26999484 LineCode=NONE Length=0.001 units=m
New Line.5DP92__2693160 Bus1=26999483 Bus2=25734544 LineCode=NONE Length=0.001 units=m
New Line.132415__2693113 Bus1=26555815 Bus2=26999436 LineCode=NONE Length=0.001 units=m
New Line.5DP93__2693169 Bus1=25734553 Bus2=26999492 LineCode=NONE Length=0.001 units=m
New Line.RFJ61__2693070 Bus1=1105381 Bus2=26999393 LineCode=NONE Length=0.001 units=m
New Line.5DP93__2693168 Bus1=26999491 Bus2=25734553 LineCode=NONE Length=0.001 units=m
New Line.RFJ61__2693071 Bus1=26999394 Bus2=1105381 LineCode=NONE Length=0.001 units=m
New Line.5DP97__2693163 Bus1=25734550 Bus2=26999486 LineCode=NONE Length=0.001 units=m
New Line.18GC32__105326047 Bus1=103631267 Bus2=103626594 LineCode=NONE Length=0.001 units=m
New Line.5DP96__2693165 Bus1=25734551 Bus2=103476241 LineCode=NONE Length=0.001 units=m
New Line.5DP97__2693162 Bus1=26999485 Bus2=25734550 LineCode=NONE Length=0.001 units=m
New Line.5DP95__2693167 Bus1=25734552 Bus2=26999490 LineCode=NONE Length=0.001 units=m
New Line.5DP96__2693164 Bus1=26999487 Bus2=25734551 LineCode=NONE Length=0.001 units=m
New Line.132415__2693114 Bus1=26999437 Bus2=26555815 LineCode=NONE Length=0.001 units=m
New Line.14G318__2700765 Bus1=103045219 Bus2=26859780 LineCode=NONE Length=0.001 units=m
New Line.17Q660__104378564 Bus1=103413073 Bus2=103413072 LineCode=NONE Length=0.001 units=m
New Line.5DP95__2693166 Bus1=26999489 Bus2=25734552 LineCode=NONE Length=0.001 units=m
New Line.132415__2693115 Bus1=26555815 Bus2=26999438 LineCode=NONE Length=0.001 units=m
New Line.14G318__2700766 Bus1=27136520 Bus2=26859780 LineCode=NONE Length=0.001 units=m
New Line.17Q660__104378565 Bus1=103413072 Bus2=103413071 LineCode=NONE Length=0.001 units=m
New Line.14G318__2700767 Bus1=103125253 Bus2=26859780 LineCode=NONE Length=0.001 units=m
New Line.84Q23__2693022 Bus1=25734526 Bus2=26999345 LineCode=NONE Length=0.001 units=m
New Line.84Q23__2693021 Bus1=26999344 Bus2=25734526 LineCode=NONE Length=0.001 units=m
New Line.84Q22__2693020 Bus1=26999343 Bus2=25734527 LineCode=NONE Length=0.001 units=m
New Line.187W44__104783614 Bus1=103571155 Bus2=103571152 LineCode=NONE Length=0.001 units=m
New Line.187W44__104783615 Bus1=103571152 Bus2=103571154 LineCode=NONE Length=0.001 units=m
New Line.6TE39__2701135 Bus1=25359971 Bus2=27136889 LineCode=NONE Length=0.001 units=m
...
!New Line.17DH83__105931281 Bus1=103649878 Bus2=T4795B23_10000007 LineCode=NONE Length=0.001 units=m
New Line.14L341__2700849 Bus1=27136603 Bus2=26887522 LineCode=NONE Length=0.001 units=m
New Line.8EK64__2701502 Bus1=27137256 Bus2=25833131 LineCode=NONE Length=0.001 units=m
New Line.14L344__2700811 Bus1=26887525 Bus2=27136565 LineCode=NONE Length=0.001 units=m
New Line.8EK64__2701503 Bus1=25833131 Bus2=27137257 LineCode=NONE Length=0.001 units=m
New Line.14L344__2700810 Bus1=27136564 Bus2=26887525 LineCode=NONE Length=0.001 units=m
New Line.18GC39__105326054 Bus1=103626615 Bus2=103626614 LineCode=NONE Length=0.001 units=m
New Line.18GC39__105326053 Bus1=103626614 Bus2=103626613 LineCode=NONE Length=0.001 units=m
New Line.7BE81__2693175 Bus1=25734547 Bus2=26999498 LineCode=NONE Length=0.001 units=m
New Line.132358__2693130 Bus1=26999453 Bus2=26555774 LineCode=NONE Length=0.001 units=m
New Line.7BE81__2693174 Bus1=26999497 Bus2=25734547 LineCode=NONE Length=0.001 units=m
New Line.132358__2693131 Bus1=26555774 Bus2=26999454 LineCode=NONE Length=0.001 units=m
New Line.7BE80__2693177 Bus1=25734546 Bus2=26999500 LineCode=NONE Length=0.001 units=m
New Line.132365__2693126 Bus1=26555802 Bus2=26999449 LineCode=NONE Length=0.001 units=m
New Line.7BE80__2693176 Bus1=26999499 Bus2=25734546 LineCode=NONE Length=0.001 units=m
New Line.7MX01__2701151 Bus1=25356091 Bus2=27136905 LineCode=NONE Length=0.001 units=m
New Line.132365__2693127 Bus1=26999450 Bus2=26555802 LineCode=NONE Length=0.001 units=m
New Line.15TN75__103913546 Bus1=103265087 Bus2=103265164 LineCode=NONE Length=0.001 units=m
New Line.7MX01__2701150 Bus1=27136904 Bus2=25356091 LineCode=NONE Length=0.001 units=m
New Line.144377__2701337 Bus1=27137091 Bus2=26776436 LineCode=NONE Length=0.001 units=m
New Line.15TN75__103913547 Bus1=103265168 Bus2=103265087 LineCode=NONE Length=0.001 units=m
New Line.18GC37__105326052 Bus1=103626598 Bus2=103626597 LineCode=NONE Length=0.001 units=m
New Line.144377__2701338 Bus1=26776436 Bus2=27137092 LineCode=NONE Length=0.001 units=m
New Line.18GC37__105326051 Bus1=103626599 Bus2=103626598 LineCode=NONE Length=0.001 units=m
New Line.132352__2693152 Bus1=26555737 Bus2=26999475 LineCode=NONE Length=0.001 units=m
New Line.132361__2693124 Bus1=26999447 Bus2=26555797 LineCode=NONE Length=0.001 units=m
New Line.132361__2693125 Bus1=26555797 Bus2=26999448 LineCode=NONE Length=0.001 units=m
New Line.106799__2701094 Bus1=25836862 Bus2=27136848 LineCode=NONE Length=0.001 units=m
New Line.106799__2701095 Bus1=27136849 Bus2=25836862 LineCode=NONE Length=0.001 units=m
New Line.132352__2693151 Bus1=26999474 Bus2=26555737 LineCode=NONE Length=0.001 units=m
New Line.106799__2701096 Bus1=25836862 Bus2=27136850 LineCode=NONE Length=0.001 units=m
New Line.13PX84__2693795 Bus1=26709852 Bus2=27000118 LineCode=NONE Length=0.001 units=m
New Line.7BE84__2693173 Bus1=26999496 Bus2=25734548 LineCode=NONE Length=0.001 units=m
New Line.13PX84__2693794 Bus1=27000117 Bus2=26709852 LineCode=NONE Length=0.001 units=m
New Line.9WA91__2700948 Bus1=27136702 Bus2=25873709 LineCode=NONE Length=0.001 units=m
New Line.132353__2693149 Bus1=26999472 Bus2=26555743 LineCode=NONE Length=0.001 units=m
New Line.9WA91__2700949 Bus1=25873709 Bus2=27136703 LineCode=NONE Length=0.001 units=m
New Line.8EK67__2700947 Bus1=27136701 Bus2=25833119 LineCode=NONE Length=0.001 units=m
New Line.13L573__2701328 Bus1=27137082 Bus2=26679488 LineCode=NONE Length=0.001 units=m
New Line.186Q93__104672517 Bus1=103527267 Bus2=103527268 LineCode=NONE Length=0.001 units=m
New Line.18NP35__106231443 Bus1=103666875 Bus2=103666849 LineCode=NONE Length=0.001 units=m
New Line.13L574__2701330 Bus1=26679489 Bus2=27137084 LineCode=NONE Length=0.001 units=m
New Line.186Q93__104672518 Bus1=103527268 Bus2=103527269 LineCode=NONE Length=0.001 units=m
New Line.18NP35__106231444 Bus1=103666849 Bus2=103666862 LineCode=NONE Length=0.001 units=m
New Line.U613BH__2692859 Bus1=26999182 Bus2=1140029 LineCode=NONE Length=0.001 units=m
New Line.U613BH__2692858 Bus1=1140029 Bus2=26999181 LineCode=NONE Length=0.001 units=m
New Line.13PX81__2693789 Bus1=26709835 Bus2=27000112 LineCode=NONE Length=0.001 units=m
New Line.183Y10__104695282 Bus1=103536824 Bus2=103536782 LineCode=NONE Length=0.001 units=m
New Line.13PX81__2693788 Bus1=27000111 Bus2=26709835 LineCode=NONE Length=0.001 units=m
New Line.17MN21__104282585 Bus1=103383294 Bus2=103383295 LineCode=NONE Length=0.001 units=m
New Line.106807__2701109 Bus1=25836870 Bus2=27136863 LineCode=NONE Length=0.001 units=m
New Line.17MN21__104282584 Bus1=103383293 Bus2=103383294 LineCode=NONE Length=0.001 units=m
New Line.8R713__2685201 Bus1=103125608 Bus2=25490378 LineCode=NONE Length=0.001 units=m
New Line.18PH79__104696197 Bus1=103537161 Bus2=103537115 LineCode=NONE Length=0.001 units=m
New Line.8R713__2685202 Bus1=25490378 Bus2=26991520 LineCode=NONE Length=0.001 units=m
New Line.17KH64__104218259 Bus1=103359454 Bus2=103359455 LineCode=NONE Length=0.001 units=m
New Line.12134__2692912 Bus1=1105210 Bus2=26999235 LineCode=NONE Length=0.001 units=m
New Line.15TN72__103913526 Bus1=103265084 Bus2=103265150 LineCode=NONE Length=0.001 units=m
New Line.18PH79__104696198 Bus1=103537115 Bus2=103537162 LineCode=NONE Length=0.001 units=m
New Line.15TN72__103913527 Bus1=103265154 Bus2=103265084 LineCode=NONE Length=0.001 units=m
New Line.12134__2692911 Bus1=26999234 Bus2=1105210 LineCode=NONE Length=0.001 units=m
New Line.14NJ20__103076966 Bus1=103032165 Bus2=103032164 LineCode=NONE Length=0.001 units=m
New Line.D870K__2693081 Bus1=1105402 Bus2=26999404 LineCode=NONE Length=0.001 units=m
New Line.D870K__2693082 Bus1=26999405 Bus2=1105402 LineCode=NONE Length=0.001 units=m
New Line.18PH78__104696212 Bus1=103537179 Bus2=103537119 LineCode=NONE Length=0.001 units=m
New Line.U595BH__2693014 Bus1=1140078 Bus2=26999337 LineCode=NONE Length=0.001 units=m
New Line.116262__2701203 Bus1=103121229 Bus2=26065905 LineCode=NONE Length=0.001 units=m
New Line.183Y92__104696250 Bus1=103537209 Bus2=103537129 LineCode=NONE Length=0.001 units=m
New Line.18PH78__104696213 Bus1=103537119 Bus2=103537182 LineCode=NONE Length=0.001 units=m
New Line.U595BH__2693013 Bus1=26999336 Bus2=1140078 LineCode=NONE Length=0.001 units=m
New Line.14Q051__103041390 Bus1=103016863 Bus2=103016860 LineCode=NONE Length=0.001 units=m
New Line.183Y92__104696251 Bus1=103537129 Bus2=103537210 LineCode=NONE Length=0.001 units=m
New Line.8Q064__2693036 Bus1=25734524 Bus2=26999359 LineCode=NONE Length=0.001 units=m
New Line.8Q064__2693035 Bus1=26999358 Bus2=25734524 LineCode=NONE Length=0.001 units=m
New Line.8R714__2685200 Bus1=25490379 Bus2=26991518 LineCode=NONE Length=0.001 units=m
New Line.14MD12__103076940 Bus1=103032159 Bus2=26859807 LineCode=NONE Length=0.001 units=m
New Line.14MD12__103076941 Bus1=26859807 Bus2=103032160 LineCode=NONE Length=0.001 units=m
New Line.84Q21__2693496 Bus1=26999819 Bus2=25734530 LineCode=NONE Length=0.001 units=m
New Line.183907__104679572 Bus1=103529700 Bus2=103529696 LineCode=NONE Length=0.001 units=m
New Line.183907__104679573 Bus1=103529698 Bus2=103597577 LineCode=NONE Length=0.001 units=m
New Line.18GC36__105326056 Bus1=103626590 Bus2=103626589 LineCode=NONE Length=0.001 units=m
New Line.9WF49__2701059 Bus1=27136813 Bus2=25876081 LineCode=NONE Length=0.001 units=m
New Line.18GC36__105326055 Bus1=103626591 Bus2=103626590 LineCode=NONE Length=0.001 units=m
New Line.183907__104679575 Bus1=103529701 Bus2=103529699 LineCode=NONE Length=0.001 units=m
New Line.5N331__2693381 Bus1=26999704 Bus2=1104653 LineCode=NONE Length=0.001 units=m
New Line.102L20__2701172 Bus1=25750604 Bus2=27136926 LineCode=NONE Length=0.001 units=m
New Line.102L20__2701173 Bus1=27136927 Bus2=25750604 LineCode=NONE Length=0.001 units=m
New Line.9AM87__2693529 Bus1=25631611 Bus2=26999852 LineCode=NONE Length=0.001 units=m
New Line.9AM87__2693528 Bus1=26999851 Bus2=25631611 LineCode=NONE Length=0.001 units=m
New Line.9AM86__2693521 Bus1=25631607 Bus2=26999844 LineCode=NONE Length=0.001 units=m
New Line.9AM86__2693520 Bus1=26999843 Bus2=25631607 LineCode=NONE Length=0.001 units=m
!New Line.18LL89__105931324 Bus1=103649893 Bus2=103649892 LineCode=NONE Length=0.001 units=m
!New Line.18LL89__105931323 Bus1=103649892 Bus2=103649891 LineCode=NONE Length=0.001 units=m
New Line.17Q659__104378567 Bus1=103413070 Bus2=103413069 LineCode=NONE Length=0.001 units=m
New Line.7WL55__103404165 Bus1=103125602 Bus2=25360338 LineCode=NONE Length=0.001 units=m
New Line.6TD35__2700965 Bus1=27136719 Bus2=26037868 LineCode=NONE Length=0.001 units=m
New Line.7NX10__103222965 Bus1=103079725 Bus2=25734533 LineCode=NONE Length=0.001 units=m
New Line.18PH81__104696204 Bus1=103537163 Bus2=103537116 LineCode=NONE Length=0.001 units=m
New Line.18PH81__104696205 Bus1=103537116 Bus2=103537165 LineCode=NONE Length=0.001 units=m
!New Line.18LL87__105931320 Bus1=103649896 Bus2=103649897 LineCode=NONE Length=0.001 units=m
New Line.18FA93__105325895 Bus1=103631341 Bus2=103631340 LineCode=NONE Length=0.001 units=m
New Line.14L465__2700820 Bus1=26887559 Bus2=27136574 LineCode=NONE Length=0.001 units=m
New Line.17MN17__104282576 Bus1=103383297 Bus2=103383298 LineCode=NONE Length=0.001 units=m
New Line.9AM88__2693526 Bus1=26999849 Bus2=25631612 LineCode=NONE Length=0.001 units=m
New Line.17MN17__104282575 Bus1=103383296 Bus2=103383297 LineCode=NONE Length=0.001 units=m
New Line.15QR57__103849313 Bus1=103249182 Bus2=103249211 LineCode=NONE Length=0.001 units=m
New Line.14L472__2700831 Bus1=26887569 Bus2=27136585 LineCode=NONE Length=0.001 units=m
New Line.15QR57__103849314 Bus1=103249214 Bus2=103249182 LineCode=NONE Length=0.001 units=m
New Line.U586BH__2693017 Bus1=1140112 Bus2=26999340 LineCode=NONE Length=0.001 units=m
New Line.U586BH__2693016 Bus1=1140112 Bus2=26999339 LineCode=NONE Length=0.001 units=m
New Line.14L469__2700828 Bus1=26887564 Bus2=27136582 LineCode=NONE Length=0.001 units=m
New Line.U586BH__2693015 Bus1=26999338 Bus2=1140112 LineCode=NONE Length=0.001 units=m
New Line.17C985__104039821 Bus1=103360206 Bus2=103306288 LineCode=NONE Length=0.001 units=m
New Line.18PH77__104696216 Bus1=103537184 Bus2=103537120 LineCode=NONE Length=0.001 units=m
New Line.18PH77__104696217 Bus1=103537120 Bus2=103537188 LineCode=NONE Length=0.001 units=m
New Line.14L469__2700827 Bus1=27136581 Bus2=26887564 LineCode=NONE Length=0.001 units=m
New Line.U405BH__103374126 Bus1=103117837 Bus2=103119508 LineCode=NONE Length=0.001 units=m
New Line.A650K__2700903 Bus1=27136657 Bus2=25734582 LineCode=NONE Length=0.001 units=m
New Line.A547BH__2692851 Bus1=1139946 Bus2=26999174 LineCode=NONE Length=0.001 units=m
New Line.A547BH__2692850 Bus1=26999173 Bus2=1139946 LineCode=NONE Length=0.001 units=m
New Line.5DP98__2693172 Bus1=26999495 Bus2=25734545 LineCode=NONE Length=0.001 units=m
New Line.5DP98__2693171 Bus1=25734545 Bus2=26999494 LineCode=NONE Length=0.001 units=m
New Line.5DP98__2693170 Bus1=25734545 Bus2=26999493 LineCode=NONE Length=0.001 units=m
New Line.6TE32__2701129 Bus1=27136883 Bus2=25359968 LineCode=NONE Length=0.001 units=m
New Line.13PX79__2693877 Bus1=26709819 Bus2=27000200 LineCode=NONE Length=0.001 units=m
New Line.14LH94__2701367 Bus1=27137121 Bus2=26907382 LineCode=NONE Length=0.001 units=m
New Line.U612BH__2692829 Bus1=1140051 Bus2=26999152 LineCode=NONE Length=0.001 units=m
!New Line.18LL88__105931326 Bus1=103649884 Bus2=103649885 LineCode=NONE Length=0.001 units=m
New Line.13PX75__2693872 Bus1=27000195 Bus2=26709761 LineCode=NONE Length=0.001 units=m
New Line.13PX75__2693871 Bus1=26709761 Bus2=27000194 LineCode=NONE Length=0.001 units=m
New Line.13PX79__2693878 Bus1=27000201 Bus2=26709819 LineCode=NONE Length=0.001 units=m
!New Line.18LL88__105931325 Bus1=103649884 Bus2=103649883 LineCode=NONE Length=0.001 units=m
New Line.17BR89__104028968 Bus1=103294689 Bus2=103294688 LineCode=NONE Length=0.001 units=m
New Line.17BR89__104028969 Bus1=103294688 Bus2=103294687 LineCode=NONE Length=0.001 units=m
New Line.13PX74__2693869 Bus1=27000192 Bus2=26709756 LineCode=NONE Length=0.001 units=m
New Line.18PH80__104696208 Bus1=103537166 Bus2=103537118 LineCode=NONE Length=0.001 units=m
New Line.18PH80__104696209 Bus1=103537118 Bus2=103537178 LineCode=NONE Length=0.001 units=m
New Line.15RX24__103950483 Bus1=103274960 Bus2=103274959 LineCode=NONE Length=0.001 units=m
New Line.U594BH__2693003 Bus1=1140114 Bus2=26999326 LineCode=NONE Length=0.001 units=m
New Line.U594BH__2693002 Bus1=26999325 Bus2=1140114 LineCode=NONE Length=0.001 units=m
New Line.14DW88__2680015 Bus1=27146928 Bus2=26835325 LineCode=NONE Length=0.001 units=m
New Line.14LH98__2701361 Bus1=27137115 Bus2=26896057 LineCode=NONE Length=0.001 units=m
New Line.14DW88__2680014 Bus1=26835326 Bus2=27146931 LineCode=NONE Length=0.001 units=m
New Line.106795__2701117 Bus1=27136871 Bus2=25836873 LineCode=NONE Length=0.001 units=m
New Line.14DW88__2680017 Bus1=27146930 Bus2=103036414 LineCode=NONE Length=0.001 units=m
New Line.14LJ02__2701355 Bus1=26896051 Bus2=27137109 LineCode=NONE Length=0.001 units=m
New Line.106795__2701118 Bus1=25836873 Bus2=27136872 LineCode=NONE Length=0.001 units=m
New Line.133Y83__2701194 Bus1=26567454 Bus2=27136948 LineCode=NONE Length=0.001 units=m
New Line.14LH98__2701362 Bus1=26896057 Bus2=103042166 LineCode=NONE Length=0.001 units=m
New Line.14LJ02__2701354 Bus1=103042169 Bus2=26896051 LineCode=NONE Length=0.001 units=m
New Line.133Y83__2701195 Bus1=27136949 Bus2=26567454 LineCode=NONE Length=0.001 units=m
New Line.12122__2700897 Bus1=25734579 Bus2=27136651 LineCode=NONE Length=0.001 units=m
New Line.14L471__104218201 Bus1=103359448 Bus2=26887566 LineCode=NONE Length=0.001 units=m
New Line.14MD35__2700862 Bus1=27136616 Bus2=103048714 LineCode=NONE Length=0.001 units=m
New Line.7BD66__2693179 Bus1=26999502 Bus2=25734543 LineCode=NONE Length=0.001 units=m
New Line.7BD66__2693178 Bus1=25734543 Bus2=26999501 LineCode=NONE Length=0.001 units=m
New Line.8R715__2701176 Bus1=27136930 Bus2=25490386 LineCode=NONE Length=0.001 units=m
New Line.15QR58__103849330 Bus1=103249185 Bus2=103249215 LineCode=NONE Length=0.001 units=m
New Line.8DT87__2692971 Bus1=25743423 Bus2=26999294 LineCode=NONE Length=0.001 units=m
New Line.8DT87__2692972 Bus1=26999295 Bus2=25743423 LineCode=NONE Length=0.001 units=m
New Line.14FX05__2700740 Bus1=27136494 Bus2=26859626 LineCode=NONE Length=0.001 units=m
New Line.12122__2700898 Bus1=27136652 Bus2=25734579 LineCode=NONE Length=0.001 units=m
New Line.11PR92__2701077 Bus1=27136831 Bus2=26284348 LineCode=NONE Length=0.001 units=m
New Line.17KH69__104218268 Bus1=103359060 Bus2=103359061 LineCode=NONE Length=0.001 units=m
New Line.17KH69__104218269 Bus1=103359059 Bus2=103359060 LineCode=NONE Length=0.001 units=m
New Line.D099K__2701021 Bus1=25734595 Bus2=27136775 LineCode=NONE Length=0.001 units=m
New Line.D099K__2701020 Bus1=27136774 Bus2=25734595 LineCode=NONE Length=0.001 units=m
New Line.D104K__2701013 Bus1=25734591 Bus2=27136767 LineCode=NONE Length=0.001 units=m
New Line.126698__2693609 Bus1=26999932 Bus2=26356921 LineCode=NONE Length=0.001 units=m
New Line.D104K__2701012 Bus1=27136766 Bus2=25734591 LineCode=NONE Length=0.001 units=m
New Line.A649K__2700901 Bus1=25734581 Bus2=27136655 LineCode=NONE Length=0.001 units=m
New Line.D102K__2700906 Bus1=25734598 Bus2=27136660 LineCode=NONE Length=0.001 units=m
New Line.A649K__2700902 Bus1=27136656 Bus2=25734581 LineCode=NONE Length=0.001 units=m
New Line.D102K__2700905 Bus1=27136659 Bus2=25734598 LineCode=NONE Length=0.001 units=m
New Line.12AK64__2701084 Bus1=27136838 Bus2=26387814 LineCode=NONE Length=0.001 units=m
New Line.7NX60__2693027 Bus1=26999350 Bus2=25734531 LineCode=NONE Length=0.001 units=m
New Line.12AK61__2701079 Bus1=27136833 Bus2=26387833 LineCode=NONE Length=0.001 units=m
New Line.9AM77__2693551 Bus1=25631610 Bus2=26999874 LineCode=NONE Length=0.001 units=m
New Line.12AK61__2701078 Bus1=26387833 Bus2=27136832 LineCode=NONE Length=0.001 units=m
New Line.13PX86__2693847 Bus1=27000170 Bus2=26709786 LineCode=NONE Length=0.001 units=m
New Line.9AM77__2693550 Bus1=26999873 Bus2=25631610 LineCode=NONE Length=0.001 units=m
New Line.13PX90__2693866 Bus1=27000189 Bus2=26709771 LineCode=NONE Length=0.001 units=m
New Line.13PX93__2693850 Bus1=26709791 Bus2=27000173 LineCode=NONE Length=0.001 units=m
New Line.14T643__103076976 Bus1=103048756 Bus2=103032167 LineCode=NONE Length=0.001 units=m
New Line.D869K__2700961 Bus1=27136715 Bus2=1105433 LineCode=NONE Length=0.001 units=m
New Line.14T643__103076977 Bus1=103032167 Bus2=103048757 LineCode=NONE Length=0.001 units=m
New Line.7NX60__2693028 Bus1=25734531 Bus2=26999351 LineCode=NONE Length=0.001 units=m
New Line.13PX86__2693848 Bus1=26709786 Bus2=27000171 LineCode=NONE Length=0.001 units=m
New Line.13PX92__2693846 Bus1=26709781 Bus2=27000169 LineCode=NONE Length=0.001 units=m
New Line.D869K__2700962 Bus1=1105433 Bus2=27136716 LineCode=NONE Length=0.001 units=m
New Line.13PX92__2693845 Bus1=27000168 Bus2=26709781 LineCode=NONE Length=0.001 units=m
New Line.7TX19__2701180 Bus1=27136934 Bus2=25360260 LineCode=NONE Length=0.001 units=m
New Line.17BR90__104028970 Bus1=103294685 Bus2=103294684 LineCode=NONE Length=0.001 units=m
New Line.G255K__2700932 Bus1=1105257 Bus2=27136686 LineCode=NONE Length=0.001 units=m
New Line.NV11__2692877 Bus1=26999200 Bus2=25024997 LineCode=NONE Length=0.001 units=m
New Line.17BR90__104028971 Bus1=103294684 Bus2=103294683 LineCode=NONE Length=0.001 units=m
New Line.G255K__2700933 Bus1=27136687 Bus2=1105257 LineCode=NONE Length=0.001 units=m
New Line.PBB37__2692826 Bus1=26999149 Bus2=1139879 LineCode=NONE Length=0.001 units=m
New Line.PBB37__2692825 Bus1=1139879 Bus2=26999148 LineCode=NONE Length=0.001 units=m
New Line.15TN76__103913510 Bus1=103384998 Bus2=103265081 LineCode=NONE Length=0.001 units=m
New Line.106796__2701090 Bus1=27136844 Bus2=25836865 LineCode=NONE Length=0.001 units=m
New Line.15TN76__103913511 Bus1=103265081 Bus2=103328976 LineCode=NONE Length=0.001 units=m
New Line.106796__2701091 Bus1=25836865 Bus2=27136845 LineCode=NONE Length=0.001 units=m
New Line.14L345__2700815 Bus1=27136569 Bus2=26887526 LineCode=NONE Length=0.001 units=m
New Line.14L345__2700814 Bus1=26887526 Bus2=27136568 LineCode=NONE Length=0.001 units=m
New Line.15QR55__103849292 Bus1=103249207 Bus2=103249178 LineCode=NONE Length=0.001 units=m
New Line.15QR55__103849291 Bus1=103249178 Bus2=103249201 LineCode=NONE Length=0.001 units=m
New Line.9WA92__2701510 Bus1=25873711 Bus2=27137264 LineCode=NONE Length=0.001 units=m
New Line.132359__2693132 Bus1=26999455 Bus2=26555782 LineCode=NONE Length=0.001 units=m
New Line.132359__2693133 Bus1=26555782 Bus2=26999456 LineCode=NONE Length=0.001 units=m
New Line.14L341__2700850 Bus1=26887522 Bus2=27136604 LineCode=NONE Length=0.001 units=m
New Line.RFJ75__2693068 Bus1=1105212 Bus2=26999391 LineCode=NONE Length=0.001 units=m
New Line.RFJ75__2693069 Bus1=26999392 Bus2=1105212 LineCode=NONE Length=0.001 units=m
New Line.132364__2693140 Bus1=26999463 Bus2=26555809 LineCode=NONE Length=0.001 units=m
...